<?xml version="1.0" encoding="UTF-8"?>

<!-- generated on 2024-04-15 22:00:42 by Eclipse SUMO netedit Version 1.19.0
<configuration xmlns:xsi="http://www.w3.org/2001/XMLSchema-instance" xsi:noNamespaceSchemaLocation="http://sumo.dlr.de/xsd/neteditConfiguration.xsd">

    <input>
        <sumo-net-file value="C:\Users\Artem\Desktop\programs\SUMO\Hakashinka\xml_data\test4\test4.net.xml"/>
    </input>

    <output>
        <output-file value="C:\Users\Artem\Desktop\programs\SUMO\Hakashinka\xml_data\test4\test4.net.xml"/>
    </output>

    <processing>
        <offset.disable-normalization value="true"/>
    </processing>

    <junctions>
        <no-turnarounds value="true"/>
    </junctions>

    <netedit>
        <new-network value="false"/>
    </netedit>

</configuration>
-->

<net version="1.16" junctionCornerDetail="5" limitTurnSpeed="5.50" xmlns:xsi="http://www.w3.org/2001/XMLSchema-instance" xsi:noNamespaceSchemaLocation="http://sumo.dlr.de/xsd/net_file.xsd">

    <location netOffset="0.00,0.00" convBoundary="-120.37,29.41,366.06,74.00" origBoundary="10000000000.00,10000000000.00,-10000000000.00,-10000000000.00" projParameter="!"/>

    <edge id=":J1_0" function="internal">
        <lane id=":J1_0_0" index="0" speed="50.00" length="0.30" shape="-52.97,68.15 -52.67,68.15"/>
        <lane id=":J1_0_1" index="1" speed="50.00" length="0.30" shape="-52.92,71.35 -52.62,71.35"/>
    </edge>
    <edge id=":J12_0" function="internal">
        <lane id=":J12_0_0" index="0" speed="4.05" length="1.58" shape="186.05,29.13 186.31,28.81 186.62,28.58 186.98,28.45 187.38,28.40"/>
    </edge>
    <edge id=":J2_0" function="internal">
        <lane id=":J2_0_0" index="0" speed="50.00" length="0.30" shape="113.65,65.33 113.96,65.33"/>
        <lane id=":J2_0_1" index="1" speed="50.00" length="0.30" shape="113.70,68.53 113.98,68.53"/>
    </edge>
    <edge id=":J3_0" function="internal">
        <lane id=":J3_0_0" index="0" speed="7.85" length="7.51" shape="159.64,64.99 161.13,64.71 162.59,63.90 164.03,62.55 165.45,60.67"/>
    </edge>
    <edge id=":J3_1" function="internal">
        <lane id=":J3_1_0" index="0" speed="50.00" length="8.13" shape="159.64,64.99 167.77,64.93"/>
        <lane id=":J3_1_1" index="1" speed="50.00" length="8.13" shape="159.66,68.19 167.80,68.13"/>
    </edge>
    <edge id=":J4_0" function="internal">
        <lane id=":J4_0_0" index="0" speed="50.00" length="0.30" shape="208.09,64.63 208.39,64.63"/>
        <lane id=":J4_0_1" index="1" speed="50.00" length="0.30" shape="208.11,67.83 208.40,67.83"/>
    </edge>

    <edge id="E0" from="J0" to="J1" priority="-1">
        <lane id="E0_0" index="0" speed="50.00" length="67.49" shape="-120.45,69.21 -52.97,68.15"/>
        <lane id="E0_1" index="1" speed="50.00" length="67.49" shape="-120.40,72.40 -52.92,71.35"/>
    </edge>
    <edge id="E1" from="J1" to="J2" priority="-1">
        <lane id="E1_0" index="0" speed="50.00" length="166.35" shape="-52.67,68.15 113.65,65.33"/>
        <lane id="E1_1" index="1" speed="50.00" length="166.35" shape="-52.62,71.35 113.70,68.53"/>
    </edge>
    <edge id="E11" from="J3" to="J12" priority="-1">
        <lane id="E11_0" index="0" speed="13.89" length="37.68" shape="165.45,60.67 186.05,29.13"/>
    </edge>
    <edge id="E12" from="J12" to="J13" priority="-1">
        <lane id="E12_0" index="0" speed="13.89" length="143.26" shape="187.38,28.40 330.65,27.81"/>
    </edge>
    <edge id="E2" from="J2" to="J3" priority="-1">
        <lane id="E2_0" index="0" speed="50.00" length="45.68" shape="113.96,65.33 159.64,64.99"/>
        <lane id="E2_1" index="1" speed="50.00" length="45.68" shape="113.98,68.53 159.66,68.19"/>
    </edge>
    <edge id="E3" from="J3" to="J4" priority="-1">
        <lane id="E3_0" index="0" speed="50.00" length="40.31" shape="167.77,64.93 208.09,64.63"/>
        <lane id="E3_1" index="1" speed="50.00" length="40.31" shape="167.80,68.13 208.11,67.83"/>
    </edge>
    <edge id="E4" from="J4" to="J5" priority="-1">
        <lane id="E4_0" index="0" speed="50.00" length="157.66" shape="208.39,64.63 366.05,64.27"/>
        <lane id="E4_1" index="1" speed="50.00" length="157.66" shape="208.40,67.83 366.06,67.47"/>
    </edge>

    <junction id="J0" type="dead_end" x="-120.37" y="74.00" incLanes="" intLanes="" shape="-120.37,74.00 -120.47,67.61"/>
    <junction id="J1" type="priority" x="-52.75" y="72.95" incLanes="E0_0 E0_1" intLanes=":J1_0_0 :J1_0_1" shape="-52.59,72.95 -52.70,66.55 -53.00,66.55 -52.90,72.95">
        <request index="0" response="00" foes="00" cont="0"/>
        <request index="1" response="00" foes="00" cont="0"/>
    </junction>
    <junction id="J12" type="priority" x="187.39" y="30.00" incLanes="E11_0" intLanes=":J12_0_0" shape="187.39,30.00 187.38,26.80 186.31,26.97 185.85,27.17 185.42,27.45 185.04,27.81 184.71,28.25">
        <request index="0" response="0" foes="0" cont="0"/>
    </junction>
    <junction id="J13" type="dead_end" x="330.65" y="29.41" incLanes="E12_0" intLanes="" shape="330.64,26.21 330.65,29.41"/>
    <junction id="J2" type="priority" x="113.86" y="70.13" incLanes="E1_0 E1_1" intLanes=":J2_0_0 :J2_0_1" shape="114.00,70.13 113.95,63.73 113.62,63.73 113.73,70.13">
        <request index="0" response="00" foes="00" cont="0"/>
        <request index="1" response="00" foes="00" cont="0"/>
    </junction>
    <junction id="J3" type="priority" x="161.41" y="69.78" incLanes="E2_0 E2_1" intLanes=":J3_0_0 :J3_1_0 :J3_1_1" shape="167.81,69.73 167.76,63.33 166.70,63.14 166.44,62.89 166.37,62.55 166.49,62.10 166.79,61.55 164.11,59.80 162.57,61.79 161.82,62.49 161.08,62.98 160.35,63.29 159.63,63.39 159.68,69.79">
        <request index="0" response="000" foes="000" cont="0"/>
        <request index="1" response="000" foes="000" cont="0"/>
        <request index="2" response="000" foes="000" cont="0"/>
    </junction>
    <junction id="J4" type="priority" x="208.26" y="69.43" incLanes="E3_0 E3_1" intLanes=":J4_0_0 :J4_0_1" shape="208.40,69.43 208.39,63.03 208.07,63.03 208.12,69.43">
        <request index="0" response="00" foes="00" cont="0"/>
        <request index="1" response="00" foes="00" cont="0"/>
    </junction>
    <junction id="J5" type="dead_end" x="366.06" y="69.07" incLanes="E4_0 E4_1" intLanes="" shape="366.05,62.67 366.06,69.07"/>

    <connection from="E0" to="E1" fromLane="0" toLane="0" via=":J1_0_0" dir="s" state="M"/>
    <connection from="E0" to="E1" fromLane="1" toLane="1" via=":J1_0_1" dir="s" state="M"/>
    <connection from="E1" to="E2" fromLane="0" toLane="0" via=":J2_0_0" dir="s" state="M"/>
    <connection from="E1" to="E2" fromLane="1" toLane="1" via=":J2_0_1" dir="s" state="M"/>
    <connection from="E11" to="E12" fromLane="0" toLane="0" via=":J12_0_0" dir="l" state="M"/>
    <connection from="E2" to="E11" fromLane="0" toLane="0" via=":J3_0_0" dir="r" state="M"/>
    <connection from="E2" to="E3" fromLane="0" toLane="0" via=":J3_1_0" dir="s" state="M"/>
    <connection from="E2" to="E3" fromLane="1" toLane="1" via=":J3_1_1" dir="s" state="M"/>
    <connection from="E3" to="E4" fromLane="0" toLane="0" via=":J4_0_0" dir="s" state="M"/>
    <connection from="E3" to="E4" fromLane="1" toLane="1" via=":J4_0_1" dir="s" state="M"/>

    <connection from=":J1_0" to="E1" fromLane="0" toLane="0" dir="s" state="M"/>
    <connection from=":J1_0" to="E1" fromLane="1" toLane="1" dir="s" state="M"/>
    <connection from=":J12_0" to="E12" fromLane="0" toLane="0" dir="l" state="M"/>
    <connection from=":J2_0" to="E2" fromLane="0" toLane="0" dir="s" state="M"/>
    <connection from=":J2_0" to="E2" fromLane="1" toLane="1" dir="s" state="M"/>
    <connection from=":J3_0" to="E11" fromLane="0" toLane="0" dir="r" state="M"/>
    <connection from=":J3_1" to="E3" fromLane="0" toLane="0" dir="s" state="M"/>
    <connection from=":J3_1" to="E3" fromLane="1" toLane="1" dir="s" state="M"/>
    <connection from=":J4_0" to="E4" fromLane="0" toLane="0" dir="s" state="M"/>
    <connection from=":J4_0" to="E4" fromLane="1" toLane="1" dir="s" state="M"/>

</net>
