<?xml version='1.0' encoding='utf-8'?>
<configuration xmlns:xsi="http://www.w3.org/2001/XMLSchema-instance" xsi:noNamespaceSchemaLocation="http://sumo.dlr.de/xsd/sumoConfiguration.xsd">
	<!--Autogenerated in Artyom's code-->
	<input>
		<net-file value="test6.net.xml" />
		<route-files value="test6.rou.xml" />
		<additional-files value="test6.add.xml" />
	</input>
	<output>
		<statistic-output value="test6.statistic.output.xml" />
	</output>
</configuration>