<?xml version="1.0" encoding="UTF-8"?>

<!-- generated on 2024-04-20 21:29:16 by Eclipse SUMO netedit Version 1.19.0
<configuration xmlns:xsi="http://www.w3.org/2001/XMLSchema-instance" xsi:noNamespaceSchemaLocation="http://sumo.dlr.de/xsd/neteditConfiguration.xsd">

    <input>
        <sumo-net-file value="test6.net.xml"/>
    </input>

    <output>
        <output-file value="test6.net.xml"/>
    </output>

    <processing>
        <geometry.min-radius.fix.railways value="false"/>
        <geometry.max-grade.fix value="false"/>
        <offset.disable-normalization value="true"/>
        <lefthand value="0"/>
    </processing>

    <junctions>
        <no-turnarounds value="true"/>
        <junctions.corner-detail value="5"/>
        <junctions.limit-turn-speed value="5.50"/>
        <rectangular-lane-cut value="0"/>
    </junctions>

    <pedestrian>
        <walkingareas value="0"/>
    </pedestrian>

</configuration>
-->

<net version="1.16" junctionCornerDetail="5" limitTurnSpeed="5.50" xmlns:xsi="http://www.w3.org/2001/XMLSchema-instance" xsi:noNamespaceSchemaLocation="http://sumo.dlr.de/xsd/net_file.xsd">

    <location netOffset="0.00,0.00" convBoundary="-120.33,-40.67,167.49,6.02" origBoundary="-10000000000.00,-10000000000.00,10000000000.00,10000000000.00" projParameter="!"/>

    <edge id=":J1_0" function="internal">
        <lane id=":J1_0_0" index="0" speed="13.89" length="0.29" shape="35.86,-6.19 36.22,-6.17"/>
        <lane id=":J1_0_1" index="1" speed="13.89" length="0.29" shape="35.76,-2.99 36.07,-2.98"/>
        <lane id=":J1_0_2" index="2" speed="13.89" length="0.29" shape="35.66,0.21 35.93,0.22"/>
        <lane id=":J1_0_3" index="3" speed="13.89" length="0.29" shape="35.56,3.41 35.78,3.42"/>
    </edge>
    <edge id=":J2_0" function="internal">
        <lane id=":J2_0_0" index="0" speed="13.89" length="8.82" shape="52.68,-5.43 55.28,-4.31 56.48,-2.06 57.68,0.15 60.29,1.14"/>
        <lane id=":J2_0_1" index="1" speed="13.89" length="8.82" shape="52.53,-2.23 54.93,-1.63 56.41,-0.47 57.89,0.64 60.29,1.14"/>
        <lane id=":J2_0_2" index="2" speed="13.89" length="8.82" shape="52.39,0.96 60.29,1.14"/>
        <lane id=":J2_0_3" index="3" speed="13.89" length="8.82" shape="52.24,4.16 60.28,4.34"/>
    </edge>
    <edge id=":J3_0" function="internal">
        <lane id=":J3_0_0" index="0" speed="13.89" length="8.89" shape="127.40,1.22 130.09,0.22 131.40,-1.98 132.71,-4.18 135.40,-5.18"/>
        <lane id=":J3_0_1" index="1" speed="13.89" length="8.89" shape="127.40,1.22 129.86,0.72 131.40,-0.38 132.94,-1.48 135.40,-1.98"/>
        <lane id=":J3_0_2" index="2" speed="13.89" length="8.89" shape="127.40,1.22 135.40,1.22"/>
        <lane id=":J3_0_3" index="3" speed="13.89" length="8.89" shape="127.40,4.42 129.86,3.92 131.40,2.82 132.94,1.72 135.40,1.22"/>
        <lane id=":J3_0_4" index="4" speed="13.89" length="8.89" shape="127.40,4.42 135.40,4.42"/>
    </edge>

    <edge id="E1" from="J1" to="J2" priority="-1">
        <lane id="E1_0" index="0" speed="13.89" length="16.48" shape="36.22,-6.17 52.68,-5.43"/>
        <lane id="E1_1" index="1" speed="13.89" length="16.48" shape="36.07,-2.98 52.53,-2.23"/>
        <lane id="E1_2" index="2" speed="13.89" length="16.48" shape="35.93,0.22 52.39,0.96"/>
        <lane id="E1_3" index="3" speed="13.89" length="16.48" shape="35.78,3.42 52.24,4.16"/>
    </edge>
    <edge id="E19" from="J24" to="J1" priority="-1" shape="-120.33,-40.67 -113.09,-35.97 -101.53,-30.42 -72.99,-15.82 -62.10,-10.90 -54.78,-7.81 -46.93,-5.52 -41.09,-4.08 -28.51,-0.93 -19.58,0.93 -6.48,3.21 11.39,4.24 35.61,5.01">
        <lane id="E19_0" index="0" speed="13.89" length="161.53" shape="-114.23,-50.06 -107.59,-45.76 -96.56,-40.46 -68.13,-25.91 -57.62,-21.16 -51.02,-18.38 -44.02,-16.34 -38.38,-14.95 -26.01,-11.85 -17.48,-10.07 -5.19,-7.93 11.89,-6.95 35.86,-6.19"/>
        <lane id="E19_1" index="1" speed="13.89" length="161.53" shape="-115.97,-47.38 -109.16,-42.96 -97.98,-37.59 -69.52,-23.03 -58.90,-18.23 -52.10,-15.36 -44.85,-13.25 -39.16,-11.84 -26.72,-8.73 -18.08,-6.93 -5.56,-4.75 11.75,-3.75 35.76,-2.99"/>
        <lane id="E19_2" index="2" speed="13.89" length="161.53" shape="-117.72,-44.70 -110.73,-40.16 -99.40,-34.72 -70.91,-20.15 -60.18,-15.30 -53.17,-12.34 -45.68,-10.16 -39.93,-8.74 -27.44,-5.61 -18.68,-3.79 -5.93,-1.57 11.60,-0.56 35.66,0.21"/>
        <lane id="E19_3" index="3" speed="13.89" length="161.53" shape="-119.46,-42.01 -112.30,-37.37 -100.82,-31.85 -72.30,-17.26 -61.46,-12.37 -54.24,-9.32 -46.51,-7.07 -40.70,-5.63 -28.15,-2.49 -19.28,-0.64 -6.30,1.62 11.46,2.64 35.56,3.41"/>
    </edge>
    <edge id="E2" from="J2" to="J3" priority="-1">
        <lane id="E2_0" index="0" speed="13.89" length="67.11" shape="60.29,1.14 127.40,1.22"/>
        <lane id="E2_1" index="1" speed="13.89" length="67.11" shape="60.28,4.34 127.40,4.42"/>
    </edge>
    <edge id="E3" from="J3" to="J4" priority="-1">
        <lane id="E3_0" index="0" speed="13.89" length="32.09" shape="135.40,-5.18 167.49,-5.18"/>
        <lane id="E3_1" index="1" speed="13.89" length="32.09" shape="135.40,-1.98 167.49,-1.98"/>
        <lane id="E3_2" index="2" speed="13.89" length="32.09" shape="135.40,1.22 167.49,1.22"/>
        <lane id="E3_3" index="3" speed="13.89" length="32.09" shape="135.40,4.42 167.49,4.42"/>
    </edge>

    <junction id="J1" type="priority" x="35.61" y="5.01" incLanes="E19_0 E19_1 E19_2 E19_3" intLanes=":J1_0_0 :J1_0_1 :J1_0_2 :J1_0_3" shape="35.71,5.01 36.29,-7.77 35.91,-7.79 35.51,5.01">
        <request index="0" response="0000" foes="0000" cont="0"/>
        <request index="1" response="0000" foes="0000" cont="0"/>
        <request index="2" response="0000" foes="0000" cont="0"/>
        <request index="3" response="0000" foes="0000" cont="0"/>
    </junction>
    <junction id="J2" type="priority" x="56.19" y="5.94" incLanes="E1_0 E1_1 E1_2 E1_3" intLanes=":J2_0_0 :J2_0_1 :J2_0_2 :J2_0_3" shape="60.28,5.94 60.29,-0.46 58.34,-0.93 57.22,-2.11 56.52,-3.66 55.81,-5.23 54.70,-6.46 52.75,-7.03 52.17,5.76">
        <request index="0" response="0110" foes="0110" cont="0"/>
        <request index="1" response="0100" foes="0101" cont="0"/>
        <request index="2" response="0000" foes="0011" cont="0"/>
        <request index="3" response="0000" foes="0000" cont="0"/>
    </junction>
    <junction id="J24" type="dead_end" x="-120.33" y="-40.67" incLanes="" intLanes="" shape="-120.33,-40.67 -113.36,-51.41"/>
    <junction id="J3" type="priority" x="131.40" y="6.02" incLanes="E2_0 E2_1" intLanes=":J3_0_0 :J3_0_1 :J3_0_2 :J3_0_3 :J3_0_4" shape="135.40,6.02 135.40,-6.78 133.39,-6.31 132.19,-5.12 130.61,-2.04 129.42,-0.86 127.40,-0.38 127.40,6.02">
        <request index="0" response="00000" foes="00000" cont="0"/>
        <request index="1" response="00000" foes="00000" cont="0"/>
        <request index="2" response="01000" foes="01000" cont="0"/>
        <request index="3" response="00000" foes="00100" cont="0"/>
        <request index="4" response="00000" foes="00000" cont="0"/>
    </junction>
    <junction id="J4" type="dead_end" x="167.49" y="6.02" incLanes="E3_0 E3_1 E3_2 E3_3" intLanes="" shape="167.49,-6.78 167.49,6.02"/>

    <connection from="E1" to="E2" fromLane="0" toLane="0" via=":J2_0_0" dir="s" state="m"/>
    <connection from="E1" to="E2" fromLane="1" toLane="0" via=":J2_0_1" dir="s" state="m"/>
    <connection from="E1" to="E2" fromLane="2" toLane="0" via=":J2_0_2" dir="s" state="M"/>
    <connection from="E1" to="E2" fromLane="3" toLane="1" keepClear="0" via=":J2_0_3" dir="s" state="M"/>
    <connection from="E19" to="E1" fromLane="0" toLane="0" via=":J1_0_0" dir="s" state="M"/>
    <connection from="E19" to="E1" fromLane="1" toLane="1" via=":J1_0_1" dir="s" state="M"/>
    <connection from="E19" to="E1" fromLane="2" toLane="2" via=":J1_0_2" dir="s" state="M"/>
    <connection from="E19" to="E1" fromLane="3" toLane="3" via=":J1_0_3" dir="s" state="M"/>
    <connection from="E2" to="E3" fromLane="0" toLane="0" via=":J3_0_0" dir="s" state="M"/>
    <connection from="E2" to="E3" fromLane="0" toLane="1" via=":J3_0_1" dir="s" state="M"/>
    <connection from="E2" to="E3" fromLane="0" toLane="2" via=":J3_0_2" dir="s" state="m"/>
    <connection from="E2" to="E3" fromLane="1" toLane="2" via=":J3_0_3" dir="s" state="M"/>
    <connection from="E2" to="E3" fromLane="1" toLane="3" via=":J3_0_4" dir="s" state="M"/>

    <connection from=":J1_0" to="E1" fromLane="0" toLane="0" dir="s" state="M"/>
    <connection from=":J1_0" to="E1" fromLane="1" toLane="1" dir="s" state="M"/>
    <connection from=":J1_0" to="E1" fromLane="2" toLane="2" dir="s" state="M"/>
    <connection from=":J1_0" to="E1" fromLane="3" toLane="3" dir="s" state="M"/>
    <connection from=":J2_0" to="E2" fromLane="0" toLane="0" dir="s" state="M"/>
    <connection from=":J2_0" to="E2" fromLane="1" toLane="0" dir="s" state="M"/>
    <connection from=":J2_0" to="E2" fromLane="2" toLane="0" dir="s" state="M"/>
    <connection from=":J2_0" to="E2" fromLane="3" toLane="1" dir="s" state="M"/>
    <connection from=":J3_0" to="E3" fromLane="0" toLane="0" dir="s" state="M"/>
    <connection from=":J3_0" to="E3" fromLane="1" toLane="1" dir="s" state="M"/>
    <connection from=":J3_0" to="E3" fromLane="2" toLane="2" dir="s" state="M"/>
    <connection from=":J3_0" to="E3" fromLane="3" toLane="2" dir="s" state="M"/>
    <connection from=":J3_0" to="E3" fromLane="4" toLane="3" dir="s" state="M"/>

</net>
