<?xml version="1.0" encoding="UTF-8"?>

<!-- generated on 2024-04-23 02:58:31 by Eclipse SUMO netedit Version 1.19.0
<configuration xmlns:xsi="http://www.w3.org/2001/XMLSchema-instance" xsi:noNamespaceSchemaLocation="http://sumo.dlr.de/xsd/neteditConfiguration.xsd">

    <input>
        <sumo-net-file value="test6.net.xml"/>
    </input>

    <output>
        <output-file value="test6.net.xml"/>
    </output>

    <processing>
        <geometry.min-radius.fix.railways value="false"/>
        <geometry.max-grade.fix value="false"/>
        <offset.disable-normalization value="true"/>
        <lefthand value="0"/>
    </processing>

    <junctions>
        <no-turnarounds value="true"/>
        <junctions.corner-detail value="5"/>
        <junctions.limit-turn-speed value="5.50"/>
        <rectangular-lane-cut value="0"/>
    </junctions>

    <pedestrian>
        <walkingareas value="0"/>
    </pedestrian>

</configuration>
-->

<net version="1.16" junctionCornerDetail="5" limitTurnSpeed="5.50" xmlns:xsi="http://www.w3.org/2001/XMLSchema-instance" xsi:noNamespaceSchemaLocation="http://sumo.dlr.de/xsd/net_file.xsd">

    <location netOffset="0.00,0.00" convBoundary="-112.88,-88.75,340.40,5.01" origBoundary="-10000000000.00,-10000000000.00,10000000000.00,10000000000.00" projParameter="!"/>

    <edge id=":J1_0" function="internal">
        <lane id=":J1_0_0" index="0" speed="13.89" length="0.38" shape="26.04,-6.19 26.29,-6.19"/>
        <lane id=":J1_0_1" index="1" speed="13.89" length="0.38" shape="25.95,-2.99 26.29,-2.99"/>
        <lane id=":J1_0_2" index="2" speed="13.89" length="0.38" shape="25.87,0.20 26.29,0.21"/>
        <lane id=":J1_0_3" index="3" speed="13.89" length="0.38" shape="25.79,3.40 26.30,3.41"/>
    </edge>
    <edge id=":J2_0" function="internal">
        <lane id=":J2_0_0" index="0" speed="13.89" length="8.89" shape="313.47,-6.23 316.16,-5.23 317.47,-3.03 318.78,-0.83 321.47,0.18"/>
        <lane id=":J2_0_1" index="1" speed="13.89" length="8.89" shape="313.47,-3.03 315.93,-2.53 317.47,-1.43 319.01,-0.33 321.47,0.18"/>
        <lane id=":J2_0_2" index="2" speed="13.89" length="8.89" shape="313.47,0.17 321.47,0.18"/>
        <lane id=":J2_0_3" index="3" speed="13.89" length="8.89" shape="313.47,0.17 315.93,0.67 317.47,1.77 319.01,2.87 321.47,3.38"/>
        <lane id=":J2_0_4" index="4" speed="13.89" length="8.89" shape="313.47,3.37 321.47,3.38"/>
    </edge>

    <edge id="E0" from="J24" to="J1" priority="-1" shape="-112.88,-88.75 -112.70,-72.11 -106.57,-52.87 -94.47,-31.41 -78.49,-14.56 -65.70,-6.51 -56.22,-2.97 -47.06,-0.60 -39.20,0.64 -30.26,2.04 -19.71,3.22 -6.28,4.38 11.39,4.63 26.02,5.01">
        <lane id="E0_0" index="0" speed="13.89" length="182.66" shape="-101.68,-88.87 -101.52,-73.91 -96.25,-57.37 -85.39,-38.11 -71.33,-23.29 -60.71,-16.60 -52.85,-13.67 -44.78,-11.58 -37.46,-10.42 -28.77,-9.06 -18.61,-7.93 -5.72,-6.81 11.61,-6.57 26.04,-6.19"/>
        <lane id="E0_1" index="1" speed="13.89" length="182.66" shape="-104.88,-88.84 -104.71,-73.40 -99.20,-56.08 -87.99,-36.20 -73.38,-20.79 -62.13,-13.72 -53.81,-10.61 -45.43,-8.44 -37.96,-7.26 -29.20,-5.89 -18.92,-4.74 -5.88,-3.62 11.55,-3.37 25.95,-2.99"/>
        <lane id="E0_2" index="2" speed="13.89" length="182.66" shape="-108.08,-88.80 -107.91,-72.88 -102.15,-54.80 -90.58,-34.28 -75.42,-18.30 -63.56,-10.83 -54.78,-7.55 -46.08,-5.31 -38.45,-4.10 -29.62,-2.72 -19.24,-1.56 -6.04,-0.42 11.49,-0.17 25.87,0.20"/>
        <lane id="E0_3" index="3" speed="13.89" length="182.66" shape="-111.28,-88.77 -111.10,-72.37 -105.10,-53.51 -93.17,-32.37 -77.47,-15.81 -64.99,-7.95 -55.74,-4.50 -46.73,-2.17 -38.95,-0.94 -30.05,0.45 -19.55,1.63 -6.20,2.78 11.42,3.03 25.79,3.40"/>
    </edge>
    <edge id="E1" from="J1" to="J2" priority="-1">
        <lane id="E1_0" index="0" speed="13.89" length="287.18" shape="26.29,-6.19 313.47,-6.23"/>
        <lane id="E1_1" index="1" speed="13.89" length="287.18" shape="26.29,-2.99 313.47,-3.03"/>
        <lane id="E1_2" index="2" speed="13.89" length="287.18" shape="26.29,0.21 313.47,0.17"/>
        <lane id="E1_3" index="3" speed="13.89" length="287.18" shape="26.30,3.41 313.47,3.37"/>
    </edge>
    <edge id="E2" from="J2" to="J3" priority="-1">
        <lane id="E2_0" index="0" speed="13.89" length="18.93" shape="321.47,0.18 340.41,0.20"/>
        <lane id="E2_1" index="1" speed="13.89" length="18.93" shape="321.47,3.38 340.40,3.40"/>
    </edge>

    <junction id="J1" type="priority" x="26.02" y="5.01" incLanes="E0_0 E0_1 E0_2 E0_3" intLanes=":J1_0_0 :J1_0_1 :J1_0_2 :J1_0_3" shape="26.30,5.01 26.29,-7.79 26.08,-7.79 25.74,5.00">
        <request index="0" response="0000" foes="0000" cont="0"/>
        <request index="1" response="0000" foes="0000" cont="0"/>
        <request index="2" response="0000" foes="0000" cont="0"/>
        <request index="3" response="0000" foes="0000" cont="0"/>
    </junction>
    <junction id="J2" type="priority" x="317.47" y="4.97" incLanes="E1_0 E1_1 E1_2 E1_3" intLanes=":J2_0_0 :J2_0_1 :J2_0_2 :J2_0_3 :J2_0_4" shape="321.47,4.98 321.47,-1.42 319.46,-1.90 318.26,-3.09 316.68,-6.17 315.49,-7.36 313.47,-7.83 313.47,4.97">
        <request index="0" response="00110" foes="00110" cont="0"/>
        <request index="1" response="00100" foes="00101" cont="0"/>
        <request index="2" response="00000" foes="00011" cont="0"/>
        <request index="3" response="10000" foes="10000" cont="0"/>
        <request index="4" response="00000" foes="01000" cont="0"/>
    </junction>
    <junction id="J24" type="dead_end" x="-112.88" y="-88.75" incLanes="" intLanes="" shape="-112.88,-88.75 -100.08,-88.89"/>
    <junction id="J3" type="dead_end" x="340.40" y="5.00" incLanes="E2_0 E2_1" intLanes="" shape="340.41,-1.40 340.40,5.00"/>

    <connection from="E0" to="E1" fromLane="0" toLane="0" via=":J1_0_0" dir="s" state="M"/>
    <connection from="E0" to="E1" fromLane="1" toLane="1" via=":J1_0_1" dir="s" state="M"/>
    <connection from="E0" to="E1" fromLane="2" toLane="2" via=":J1_0_2" dir="s" state="M"/>
    <connection from="E0" to="E1" fromLane="3" toLane="3" via=":J1_0_3" dir="s" state="M"/>
    <connection from="E1" to="E2" fromLane="0" toLane="0" via=":J2_0_0" dir="s" state="m"/>
    <connection from="E1" to="E2" fromLane="1" toLane="0" via=":J2_0_1" dir="s" state="m"/>
    <connection from="E1" to="E2" fromLane="2" toLane="0" via=":J2_0_2" dir="s" state="M"/>
    <connection from="E1" to="E2" fromLane="2" toLane="1" via=":J2_0_3" dir="s" state="m"/>
    <connection from="E1" to="E2" fromLane="3" toLane="1" keepClear="0" via=":J2_0_4" dir="s" state="M"/>

    <connection from=":J1_0" to="E1" fromLane="0" toLane="0" dir="s" state="M"/>
    <connection from=":J1_0" to="E1" fromLane="1" toLane="1" dir="s" state="M"/>
    <connection from=":J1_0" to="E1" fromLane="2" toLane="2" dir="s" state="M"/>
    <connection from=":J1_0" to="E1" fromLane="3" toLane="3" dir="s" state="M"/>
    <connection from=":J2_0" to="E2" fromLane="0" toLane="0" dir="s" state="M"/>
    <connection from=":J2_0" to="E2" fromLane="1" toLane="0" dir="s" state="M"/>
    <connection from=":J2_0" to="E2" fromLane="2" toLane="0" dir="s" state="M"/>
    <connection from=":J2_0" to="E2" fromLane="3" toLane="1" dir="s" state="M"/>
    <connection from=":J2_0" to="E2" fromLane="4" toLane="1" dir="s" state="M"/>

</net>
