<?xml version="1.0" encoding="UTF-8"?>

<!-- generated on 2024-04-22 18:40:47 by Eclipse SUMO netedit Version 1.19.0
<configuration xmlns:xsi="http://www.w3.org/2001/XMLSchema-instance" xsi:noNamespaceSchemaLocation="http://sumo.dlr.de/xsd/neteditConfiguration.xsd">

    <input>
        <sumo-net-file value="rifle.net.xml"/>
    </input>

    <output>
        <output-file value="rifle.net.xml"/>
    </output>

    <processing>
        <geometry.min-radius.fix.railways value="false"/>
        <geometry.max-grade.fix value="false"/>
        <offset.disable-normalization value="true"/>
        <lefthand value="0"/>
    </processing>

    <junctions>
        <no-turnarounds value="true"/>
        <junctions.corner-detail value="5"/>
        <junctions.limit-turn-speed value="5.50"/>
        <rectangular-lane-cut value="0"/>
    </junctions>

    <pedestrian>
        <walkingareas value="0"/>
    </pedestrian>

</configuration>
-->

<net version="1.16" junctionCornerDetail="5" limitTurnSpeed="5.50" xmlns:xsi="http://www.w3.org/2001/XMLSchema-instance" xsi:noNamespaceSchemaLocation="http://sumo.dlr.de/xsd/net_file.xsd">

    <location netOffset="0.00,0.00" convBoundary="-532.32,-208.32,329.54,-57.35" origBoundary="-10000000000.00,-10000000000.00,10000000000.00,10000000000.00" projParameter="!"/>

    <edge id=":J58_0" function="internal">
        <lane id=":J58_0_0" index="0" speed="13.89" length="0.30" shape="-332.48,-68.55 -332.21,-68.55"/>
        <lane id=":J58_0_1" index="1" speed="13.89" length="0.30" shape="-332.50,-65.35 -332.21,-65.35"/>
        <lane id=":J58_0_2" index="2" speed="13.89" length="0.30" shape="-332.52,-62.15 -332.21,-62.15"/>
        <lane id=":J58_0_3" index="3" speed="13.89" length="0.30" shape="-332.53,-58.95 -332.20,-58.95"/>
    </edge>
    <edge id=":J60_0" function="internal">
        <lane id=":J60_0_0" index="0" speed="13.89" length="0.30" shape="-154.37,-68.75 -154.06,-68.75"/>
        <lane id=":J60_0_1" index="1" speed="13.89" length="0.30" shape="-154.37,-65.55 -154.06,-65.55"/>
        <lane id=":J60_0_2" index="2" speed="13.89" length="0.30" shape="-154.36,-62.35 -154.06,-62.35"/>
        <lane id=":J60_0_3" index="3" speed="13.89" length="0.30" shape="-154.36,-59.15 -154.06,-59.15"/>
    </edge>
    <edge id=":J61_0" function="internal">
        <lane id=":J61_0_0" index="0" speed="13.89" length="0.10" shape="60.47,-68.75 60.47,-68.75"/>
        <lane id=":J61_0_1" index="1" speed="13.89" length="0.10" shape="60.47,-65.55 60.47,-65.55"/>
        <lane id=":J61_0_2" index="2" speed="13.89" length="0.10" shape="60.47,-62.35 60.47,-62.35"/>
        <lane id=":J61_0_3" index="3" speed="13.89" length="0.10" shape="60.47,-59.15 60.47,-59.15"/>
    </edge>
    <edge id=":J63_0" function="internal">
        <lane id=":J63_0_0" index="0" speed="13.89" length="8.92" shape="272.30,-68.75 274.99,-67.75 276.30,-65.55 277.61,-63.35 280.30,-62.35"/>
        <lane id=":J63_0_1" index="1" speed="13.89" length="8.92" shape="272.30,-65.55 274.76,-65.05 276.30,-63.95 277.84,-62.85 280.30,-62.35"/>
        <lane id=":J63_0_2" index="2" speed="13.89" length="8.92" shape="272.30,-62.35 280.30,-62.35"/>
        <lane id=":J63_0_3" index="3" speed="13.89" length="8.92" shape="272.30,-59.15 280.30,-59.15"/>
    </edge>

    <edge id="E0" from="J57" to="J58" priority="-1" shape="-532.32,-208.32 -524.30,-180.80 -509.03,-152.79 -492.00,-130.31 -473.95,-110.42 -447.40,-90.42 -423.02,-76.03 -387.32,-62.94 -355.58,-57.56 -342.81,-57.40 -332.37,-57.35">
        <lane id="E0_0" index="0" speed="13.89" length="262.21" shape="-521.57,-211.45 -513.89,-185.10 -499.60,-158.89 -483.37,-137.47 -466.37,-118.73 -441.16,-99.74 -418.21,-86.19 -384.43,-73.81 -354.57,-68.75 -342.71,-68.60 -332.48,-68.55"/>
        <lane id="E0_1" index="1" speed="13.89" length="262.21" shape="-524.64,-210.56 -516.86,-183.87 -502.29,-157.14 -485.84,-135.42 -468.53,-116.36 -442.95,-97.08 -419.58,-83.29 -385.26,-70.70 -354.86,-65.55 -342.74,-65.40 -332.50,-65.35"/>
        <lane id="E0_2" index="2" speed="13.89" length="262.21" shape="-527.71,-209.66 -519.84,-182.64 -504.99,-155.40 -488.30,-133.38 -470.70,-113.98 -444.73,-94.42 -420.96,-80.39 -386.08,-67.60 -355.15,-62.35 -342.77,-62.20 -332.52,-62.15"/>
        <lane id="E0_3" index="3" speed="13.89" length="262.21" shape="-530.78,-208.77 -522.81,-181.41 -507.68,-153.66 -490.77,-131.33 -472.87,-111.61 -446.51,-91.75 -422.33,-77.48 -386.91,-64.49 -355.44,-59.16 -342.80,-59.00 -332.53,-58.95"/>
    </edge>
    <edge id="E1" from="J58" to="J60" priority="-1">
        <lane id="E1_0" index="0" speed="13.89" length="177.85" shape="-332.21,-68.55 -154.37,-68.75"/>
        <lane id="E1_1" index="1" speed="13.89" length="177.85" shape="-332.21,-65.35 -154.37,-65.55"/>
        <lane id="E1_2" index="2" speed="13.89" length="177.85" shape="-332.21,-62.15 -154.36,-62.35"/>
        <lane id="E1_3" index="3" speed="13.89" length="177.85" shape="-332.20,-58.95 -154.36,-59.15"/>
    </edge>
    <edge id="E2" from="J60" to="J61" priority="-1">
        <lane id="E2_0" index="0" speed="13.89" length="214.53" shape="-154.06,-68.75 60.47,-68.75"/>
        <lane id="E2_1" index="1" speed="13.89" length="214.53" shape="-154.06,-65.55 60.47,-65.55"/>
        <lane id="E2_2" index="2" speed="13.89" length="214.53" shape="-154.06,-62.35 60.47,-62.35"/>
        <lane id="E2_3" index="3" speed="13.89" length="214.53" shape="-154.06,-59.15 60.47,-59.15"/>
    </edge>
    <edge id="E3" from="J61" to="J63" priority="-1">
        <lane id="E3_0" index="0" speed="13.89" length="211.83" shape="60.47,-68.75 272.30,-68.75"/>
        <lane id="E3_1" index="1" speed="13.89" length="211.83" shape="60.47,-65.55 272.30,-65.55"/>
        <lane id="E3_2" index="2" speed="13.89" length="211.83" shape="60.47,-62.35 272.30,-62.35"/>
        <lane id="E3_3" index="3" speed="13.89" length="211.83" shape="60.47,-59.15 272.30,-59.15"/>
    </edge>
    <edge id="E4" from="J63" to="J64" priority="-1">
        <lane id="E4_0" index="0" speed="13.89" length="49.24" shape="280.30,-62.35 329.54,-62.30"/>
        <lane id="E4_1" index="1" speed="13.89" length="49.24" shape="280.30,-59.15 329.54,-59.10"/>
    </edge>

    <junction id="J57" type="dead_end" x="-532.32" y="-208.32" incLanes="" intLanes="" shape="-532.32,-208.32 -520.03,-211.90"/>
    <junction id="J58" type="priority" x="-332.37" y="-57.35" incLanes="E0_0 E0_1 E0_2 E0_3" intLanes=":J58_0_0 :J58_0_1 :J58_0_2 :J58_0_3" shape="-332.20,-57.35 -332.22,-70.15 -332.48,-70.15 -332.54,-57.35">
        <request index="0" response="0000" foes="0000" cont="0"/>
        <request index="1" response="0000" foes="0000" cont="0"/>
        <request index="2" response="0000" foes="0000" cont="0"/>
        <request index="3" response="0000" foes="0000" cont="0"/>
    </junction>
    <junction id="J60" type="priority" x="-154.21" y="-57.55" incLanes="E1_0 E1_1 E1_2 E1_3" intLanes=":J60_0_0 :J60_0_1 :J60_0_2 :J60_0_3" shape="-154.06,-57.55 -154.06,-70.35 -154.37,-70.35 -154.36,-57.55">
        <request index="0" response="0000" foes="0000" cont="0"/>
        <request index="1" response="0000" foes="0000" cont="0"/>
        <request index="2" response="0000" foes="0000" cont="0"/>
        <request index="3" response="0000" foes="0000" cont="0"/>
    </junction>
    <junction id="J61" type="priority" x="60.47" y="-57.55" incLanes="E2_0 E2_1 E2_2 E2_3" intLanes=":J61_0_0 :J61_0_1 :J61_0_2 :J61_0_3" shape="60.47,-57.55 60.47,-70.35 60.47,-57.55">
        <request index="0" response="0000" foes="0000" cont="0"/>
        <request index="1" response="0000" foes="0000" cont="0"/>
        <request index="2" response="0000" foes="0000" cont="0"/>
        <request index="3" response="0000" foes="0000" cont="0"/>
    </junction>
    <junction id="J63" type="priority" x="276.30" y="-57.55" incLanes="E3_0 E3_1 E3_2 E3_3" intLanes=":J63_0_0 :J63_0_1 :J63_0_2 :J63_0_3" shape="280.30,-57.55 280.30,-63.95 278.29,-64.42 277.09,-65.61 275.51,-68.69 274.32,-69.88 272.30,-70.35 272.30,-57.55">
        <request index="0" response="0110" foes="0110" cont="0"/>
        <request index="1" response="0100" foes="0101" cont="0"/>
        <request index="2" response="0000" foes="0011" cont="0"/>
        <request index="3" response="0000" foes="0000" cont="0"/>
    </junction>
    <junction id="J64" type="dead_end" x="329.54" y="-57.50" incLanes="E4_0 E4_1" intLanes="" shape="329.55,-63.90 329.54,-57.50"/>

    <connection from="E0" to="E1" fromLane="0" toLane="0" via=":J58_0_0" dir="s" state="M"/>
    <connection from="E0" to="E1" fromLane="1" toLane="1" via=":J58_0_1" dir="s" state="M"/>
    <connection from="E0" to="E1" fromLane="2" toLane="2" via=":J58_0_2" dir="s" state="M"/>
    <connection from="E0" to="E1" fromLane="3" toLane="3" via=":J58_0_3" dir="s" state="M"/>
    <connection from="E1" to="E2" fromLane="0" toLane="0" via=":J60_0_0" dir="s" state="M"/>
    <connection from="E1" to="E2" fromLane="1" toLane="1" via=":J60_0_1" dir="s" state="M"/>
    <connection from="E1" to="E2" fromLane="2" toLane="2" via=":J60_0_2" dir="s" state="M"/>
    <connection from="E1" to="E2" fromLane="3" toLane="3" via=":J60_0_3" dir="s" state="M"/>
    <connection from="E2" to="E3" fromLane="0" toLane="0" via=":J61_0_0" dir="s" state="M"/>
    <connection from="E2" to="E3" fromLane="1" toLane="1" via=":J61_0_1" dir="s" state="M"/>
    <connection from="E2" to="E3" fromLane="2" toLane="2" via=":J61_0_2" dir="s" state="M"/>
    <connection from="E2" to="E3" fromLane="3" toLane="3" via=":J61_0_3" dir="s" state="M"/>
    <connection from="E3" to="E4" fromLane="0" toLane="0" via=":J63_0_0" dir="s" state="m"/>
    <connection from="E3" to="E4" fromLane="1" toLane="0" via=":J63_0_1" dir="s" state="m"/>
    <connection from="E3" to="E4" fromLane="2" toLane="0" keepClear="0" via=":J63_0_2" dir="s" state="M"/>
    <connection from="E3" to="E4" fromLane="3" toLane="1" keepClear="0" via=":J63_0_3" dir="s" state="M"/>

    <connection from=":J58_0" to="E1" fromLane="0" toLane="0" dir="s" state="M"/>
    <connection from=":J58_0" to="E1" fromLane="1" toLane="1" dir="s" state="M"/>
    <connection from=":J58_0" to="E1" fromLane="2" toLane="2" dir="s" state="M"/>
    <connection from=":J58_0" to="E1" fromLane="3" toLane="3" dir="s" state="M"/>
    <connection from=":J60_0" to="E2" fromLane="0" toLane="0" dir="s" state="M"/>
    <connection from=":J60_0" to="E2" fromLane="1" toLane="1" dir="s" state="M"/>
    <connection from=":J60_0" to="E2" fromLane="2" toLane="2" dir="s" state="M"/>
    <connection from=":J60_0" to="E2" fromLane="3" toLane="3" dir="s" state="M"/>
    <connection from=":J61_0" to="E3" fromLane="0" toLane="0" dir="s" state="M"/>
    <connection from=":J61_0" to="E3" fromLane="1" toLane="1" dir="s" state="M"/>
    <connection from=":J61_0" to="E3" fromLane="2" toLane="2" dir="s" state="M"/>
    <connection from=":J61_0" to="E3" fromLane="3" toLane="3" dir="s" state="M"/>
    <connection from=":J63_0" to="E4" fromLane="0" toLane="0" dir="s" state="M"/>
    <connection from=":J63_0" to="E4" fromLane="1" toLane="0" dir="s" state="M"/>
    <connection from=":J63_0" to="E4" fromLane="2" toLane="0" dir="s" state="M"/>
    <connection from=":J63_0" to="E4" fromLane="3" toLane="1" dir="s" state="M"/>

</net>
