<?xml version='1.0' encoding='utf-8'?>
<routes xmlns:xsi="http://www.w3.org/2001/XMLSchema-instance" xsi:noNamespaceSchemaLocation="http://sumo.dlr.de/xsd/routes_file.xsd">
	<!--VTypes-->
	<vType id="default" accel="3.0" decel="6.0" length="4.0" minGap="1" maxSpeed="20" sigma="0.5" />
	<!--Flows-->
	<flow id="default" from="E0" type="default" to="E4" begin="0" end="100" number="6000" departSpeed="13.0" arrivalSpeed="13.0" departLane="random" arrivalLane="current" />
</routes>