<?xml version='1.0' encoding='utf-8'?>
<configuration xmlns:xsi="http://www.w3.org/2001/XMLSchema-instance" xsi:noNamespaceSchemaLocation="http://sumo.dlr.de/xsd/sumoConfiguration.xsd">
	<!--Autogenerated in Artyom's code-->
	<input>
		<net-file value="test5.net.xml" />
		<route-files value="test5.rou.xml" />
	</input>
	<output>
		<statistic-output value="/xml_data/test5/test5.statistic.output.xml" />
	</output>
</configuration>