<?xml version="1.0" encoding="UTF-8"?>

<!-- generated on 2024-04-13 13:00:59 by Eclipse SUMO netedit Version 1.19.0
-->

<routes xmlns:xsi="http://www.w3.org/2001/XMLSchema-instance" xsi:noNamespaceSchemaLocation="http://sumo.dlr.de/xsd/routes_file.xsd">
    <!-- Routes -->
    <route id="r_0" edges="E0 E2"/>
    <route id="r_1" edges="-E1 E3"/>
    <route id="r_10" edges="-E1 -E0"/>
    <route id="r_11" edges="E0 E1"/>
    <route id="r_12" edges="-E2 E3"/>
    <route id="r_2" edges="-E2 E1"/>
    <route id="r_3" edges="-E3 -E0"/>
    <route id="r_4" edges="-E3 E2"/>
    <route id="r_5" edges="E0 E1"/>
    <route id="r_6" edges="-E3 E1"/>
    <route id="r_7" edges="-E1 E2"/>
    <route id="r_8" edges="-E2 -E0"/>
    <route id="r_9" edges="E0 E3"/>
    <!-- Vehicles, persons and containers (sorted by depart) -->
    <trip id="t_0" depart="0.00" from="E0" to="E2"/>
    <trip id="t_1" depart="0.00" from="-E1" to="-E0"/>
    <trip id="t_2" depart="0.00" from="-E3" to="E2"/>
    <trip id="t_3" depart="0.00" from="-E3" to="-E0"/>
    <trip id="t_4" depart="0.00" from="-E1" to="E3"/>
    <trip id="t_5" depart="0.00" from="-E2" to="E3"/>
    <trip id="t_6" depart="0.00" from="E0" to="E1"/>
</routes>
