<?xml version='1.0' encoding='utf-8'?>
<additional xmlns:xsi="http://www.w3.org/2001/XMLSchema-instance" xsi:noNamespaceSchemaLocation="http://sumo.dlr.de/xsd/additional_file.xsd">
	<!--VTypes-->
	<vType id="id1" accel="3.0" decel="6.0" length="30.0" minGap="4" maxSpeed="20.0" sigma="0.5" />
	<vType id="id2" accel="3.0" decel="6.0" length="20.0" minGap="4" maxSpeed="20" sigma="0.5" />
	<vType id="id3" accel="3.0" decel="6.0" length="10.0" minGap="4" maxSpeed="20" sigma="0.5" />
	<vType id="id4" accel="3.0" decel="6.0" length="4.0" minGap="4" maxSpeed="20.0" sigma="0.5" />
	<!--Calibrators-->
	<calibrator id="cal2" edge="E1" pos="0" lane="E1_2">
		<flow begin="0" end="10000" type="id3" />
	</calibrator>
	<calibrator id="cal3" edge="E2" pos="0" lane="E2_0">
		<flow begin="0" end="10000" type="id4" />
	</calibrator>
	<calibrator id="cal4" edge="E2" pos="0" lane="E2_1">
		<flow begin="0" end="10000" type="id4" />
	</calibrator>
</additional>