<?xml version='1.0' encoding='utf-8'?>
<additional xmlns:xsi="http://www.w3.org/2001/XMLSchema-instance" xsi:noNamespaceSchemaLocation="http://sumo.dlr.de/xsd/additional_file.xsd">
	<!--VTypes-->
	<vType id="id1" accel="3.0" decel="6.0" length="4.0" minGap="5" maxSpeed="50.0" sigma="0.5" />
	<!--Calibrators-->
	<calibrator id="cal0" edge="E2" pos="0" lane="E2_0">
		<flow begin="0" end="1800" type="id1" />
	</calibrator>
	<calibrator id="cal1" edge="E2" pos="0" lane="E2_1">
		<flow begin="0" end="1800" type="id1" />
	</calibrator>
</additional>